31
 energy: -59.762771887099 gnorm: 0.000852132650 xtb: 6.2.2 (655bc02)
O           5.23522884848468   -5.18605508834101   -0.79850322343088
O           3.39758615125147   -3.90205631302884   -1.34100659915005
O 8.22921067106346   -1.20805596689262   -2.75477051068703
O           6.50608463088384   -5.00968365785595   -0.25689925410117
O           4.30467005129190   -4.16565922871523   -0.37165514384686
O           3.55855194154950   -2.63258720403265   -1.93720987929555
O           7.16117084754898   -0.25574930867871   -2.75389634920119
C           3.86190259193240   -2.65207921735046   -3.34426401212730
C           5.27779912564454   -3.13334240920259   -3.46120981281411
C           6.28925275954341   -2.27751168226444   -3.43646026670764
C           6.14736994106861   -0.78579174024809   -3.58118634725633
C           4.76798766358909   -0.31008969349946   -3.13607279416793
C           3.69758790968571   -1.19483712506219   -3.77676896993117
C           8.50990590055192   -4.91911067128726   -1.87040756363524
C           8.25545483395828   -4.71592190433064   -3.20293122010281
C           8.67275864489744   -3.38829589662679   -3.69563199264458
C           7.67267359057239   -2.49556950887264   -2.84442173747361
C           7.21025832122767   -3.08742061757680   -1.50449931833292
C           7.34511197576935   -4.38107496049396   -1.14950915771298
H           3.14832732623724   -3.30650509960875   -3.85718602942380
H           5.42450634548757   -4.19166031289366   -3.30574050311805
H           6.32997666829926   -0.50882619312318   -4.63517393591474
H           4.62363248979346    0.73116287353853   -3.41898407688771
H           4.70199584868186   -0.38636087321686   -2.05067545495720
H           3.77014530681376   -1.15007642673883   -4.86406463789750
H           2.71073470707916   -0.84902671453037   -3.47282602536797
H           9.47339956517358   -4.64640153567585   -1.46000948278368
H           7.30644607573951   -5.06458276897560   -3.59316577116368
H           9.68164414284769   -3.10452839459375   -3.40013417705262
H           8.51804482770232   -3.19622293637917   -4.75594448980225
H           6.56901029562993    -2.42593942344202   -0.93540126301122

